ULAU13/ssdMT_ULAU13.dss
New line.mt534090 phases=3 bus1=1358767B.1.2.3 bus2=126434697.1.2.3 linecode=CAB102_3_3_3 length=0.02953 units=km 
New line.mt534538 phases=3 bus1=1359355B.1.2.3 bus2=1358767B.1.2.3 linecode=CAB102_3_3_3 length=0.056049 units=km 
New line.mt534545 phases=3 bus1=1359369B.1.2.3 bus2=1359355B.1.2.3 linecode=CAB102_3_3_3 length=0.054751 units=km 
New line.mt534552 phases=3 bus1=126434690.1.2.3 bus2=1359369B.1.2.3 linecode=CAB102_3_3_3 length=0.066092 units=km 
New line.mt534559 phases=3 bus1=126434221.1.2.3 bus2=1359390B.1.2.3 linecode=CAB102_3_3_3 length=0.037101 units=km 
New line.mt534566 phases=3 bus1=1359390B.1.2.3 bus2=157915551.1.2.3 linecode=CAB102_3_3_3 length=0.029138999999999998 units=km 
New line.mt534615 phases=3 bus1=157915273.1.2.3 bus2=157915187.1.2.3 linecode=CAB102_3_3_3 length=0.04175 units=km 
New line.mt534622 phases=3 bus1=178238931.1.2.3 bus2=1359488B.1.2.3 linecode=CAB902_4_3_3 length=0.043023000000000006 units=km 
New line.mt534629 phases=3 bus1=1359446B.1.2.3 bus2=157915273.1.2.3 linecode=CAB102_3_3_3 length=0.044529000000000006 units=km 
New line.mt534636 phases=3 bus1=178238932.1.2.3 bus2=1359481B.1.2.3 linecode=CABA06_3_3_3 length=0.041087000000000005 units=km 
New line.mt534650 phases=3 bus1=1359488B.1.2.3 bus2=178238932.1.2.3 linecode=CAB902_4_3_3 length=0.043634 units=km 
New line.mt534895 phases=3 bus1=1359817B.1.2.3 bus2=158675268.1.2.3 linecode=CAB103_3_3_3 length=0.06331300000000001 units=km 
New line.mt534909 phases=3 bus1=158675266.1.2.3 bus2=1359817B.1.2.3 linecode=CAB103_3_3_3 length=0.06625 units=km 
New line.mt534916 phases=3 bus1=158675265.1.2.3 bus2=1359824B.1.2.3 linecode=CAB102_3_3_3 length=0.00608 units=km 
New line.mt534923 phases=3 bus1=158675265.1.2.3 bus2=158675266.1.2.3 linecode=CAB102_3_3_3 length=0.008058 units=km 
New line.mt534930 phases=3 bus1=158675265.1.2.3 bus2=1359845B.1.2.3 linecode=CAB102_3_3_3 length=0.047048 units=km 
New line.mt534937 phases=3 bus1=1359845B.1.2.3 bus2=158675267.1.2.3 linecode=CAB102_3_3_3 length=0.058209000000000004 units=km 
New line.mt534972 phases=3 bus1=158675262.1.2.3 bus2=1359943B.1.2.3 linecode=CABA06_3_3_3 length=0.013146000000000001 units=km 
New line.mt534979 phases=3 bus1=158675262.1.2.3 bus2=1359999B.1.2.3 linecode=CABA06_3_3_3 length=0.028056 units=km 
New line.mt534986 phases=3 bus1=1359964B.1.2.3 bus2=158675262.1.2.3 linecode=CABA06_3_3_3 length=0.014414999999999999 units=km 
New line.mt535000 phases=3 bus1=1359999B.1.2.3 bus2=158675263.1.2.3 linecode=CABA06_3_3_3 length=0.038097 units=km 
New line.mt535245 phases=3 bus1=181076236.1.2.3 bus2=1360419B.1.2.3 linecode=CAB103_3_3_3 length=0.009994999999999999 units=km 
New line.mt535252 phases=3 bus1=181076236.1.2.3 bus2=181076240.1.2.3 linecode=CAB103_3_3_3 length=0.04814 units=km 
New line.mt535259 phases=3 bus1=1360440B.1.2.3 bus2=181076236.1.2.3 linecode=CAB103_3_3_3 length=0.008058 units=km 
New line.mt535266 phases=3 bus1=1360475B.1.2.3 bus2=1360440B.1.2.3 linecode=CAB103_3_3_3 length=0.031605 units=km 
New line.mt535273 phases=3 bus1=1360482B.1.2.3 bus2=1360475B.1.2.3 linecode=CAB103_3_3_3 length=0.035785 units=km 
New line.mt535280 phases=3 bus1=1360489B.1.2.3 bus2=1360482B.1.2.3 linecode=CAB103_3_3_3 length=0.035785 units=km 
New line.mt535287 phases=3 bus1=1360496B.1.2.3 bus2=1360489B.1.2.3 linecode=CAB103_3_3_3 length=0.035785 units=km 
New line.mt535294 phases=3 bus1=1360503B.1.2.3 bus2=1360496B.1.2.3 linecode=CAB103_3_3_3 length=0.036599 units=km 
New line.mt535301 phases=3 bus1=1360510B.1.2.3 bus2=1360503B.1.2.3 linecode=CAB103_3_3_3 length=0.032185000000000005 units=km 
New line.mt535812 phases=3 bus1=159845418.1.2.3 bus2=1361609B.1.2.3 linecode=CAB102_3_3_3 length=0.032045000000000004 units=km 
New line.mt535819 phases=3 bus1=1361609B.1.2.3 bus2=1361616B.1.2.3 linecode=CAB102_3_3_3 length=0.03005 units=km 
New line.mt535826 phases=3 bus1=1361623B.1.2.3 bus2=1361616B.1.2.3 linecode=CAB102_3_3_3 length=0.031128 units=km 
New line.mt535833 phases=3 bus1=159845416.1.2.3 bus2=1361623B.1.2.3 linecode=CAB102_3_3_3 length=0.032045000000000004 units=km 
New line.mt535840 phases=3 bus1=159845416.1.2.3 bus2=126434004.1.2.3 linecode=CAB102_3_3_3 length=0.03 units=km 
New line.mt535847 phases=3 bus1=174216364.1.2.3 bus2=1362498B.1.2.3 linecode=CAB102_3_3_3 length=0.031047 units=km 
New line.mt535854 phases=3 bus1=1361644B.1.2.3 bus2=159845416.1.2.3 linecode=CAB102_3_3_3 length=0.0064 units=km 
New line.mt535861 phases=3 bus1=1361651B.1.2.3 bus2=1361644B.1.2.3 linecode=CAB102_3_3_3 length=0.026062000000000002 units=km 
New line.mt535868 phases=3 bus1=1361735B.1.2.3 bus2=1806949B.1.2.3 linecode=CABA06_3_3_3 length=0.035038 units=km 
New line.mt535875 phases=3 bus1=126434823.1.2.3 bus2=126434830.1.2.3 linecode=CAB102_3_3_3 length=0.031047 units=km 
New line.mt535882 phases=3 bus1=126434823.1.2.3 bus2=1361735B.1.2.3 linecode=CABA06_3_3_3 length=0.036105 units=km 
New line.mt535889 phases=3 bus1=1361749B.1.2.3 bus2=126434823.1.2.3 linecode=CAB102_3_3_3 length=0.031128 units=km 
New line.mt535896 phases=3 bus1=174216363.1.2.3 bus2=174216362.1.2.3 linecode=CAB102_3_3_3 length=0.03005 units=km 
New line.mt535903 phases=3 bus1=1361763B.1.2.3 bus2=174216365.1.2.3 linecode=CAB102_3_3_3 length=0.031047 units=km 
New line.mt535910 phases=3 bus1=1361763B.1.2.3 bus2=1361770B.1.2.3 linecode=CAB102_3_3_3 length=0.033042 units=km 
New line.mt535917 phases=3 bus1=1361770B.1.2.3 bus2=1361784B.1.2.3 linecode=CAB102_3_3_3 length=0.033042 units=km 
New line.mt535924 phases=3 bus1=1361784B.1.2.3 bus2=1361791B.1.2.3 linecode=CAB102_3_3_3 length=0.032997 units=km 
New line.mt535931 phases=3 bus1=1361791B.1.2.3 bus2=174216366.1.2.3 linecode=CAB102_3_3_3 length=0.033042 units=km 
New line.mt535938 phases=3 bus1=174216366.1.2.3 bus2=1361805B.1.2.3 linecode=CAB102_3_3_3 length=0.032045000000000004 units=km 
New line.mt535945 phases=3 bus1=1361805B.1.2.3 bus2=1361812B.1.2.3 linecode=CAB102_3_3_3 length=0.033042 units=km 
New line.mt535952 phases=3 bus1=126434032.1.2.3 bus2=1361812B.1.2.3 linecode=CAB102_3_3_3 length=0.033042 units=km 
New line.mt535959 phases=3 bus1=1361826B.1.2.3 bus2=126435033.1.2.3 linecode=CAB102_3_3_3 length=0.034995 units=km 
New line.mt535966 phases=3 bus1=1361840B.1.2.3 bus2=1361826B.1.2.3 linecode=CAB102_3_3_3 length=0.007068 units=km 
New line.mt535973 phases=3 bus1=1361840B.1.2.3 bus2=1361854B.1.2.3 linecode=CAB102_3_3_3 length=0.029053000000000002 units=km 
New line.mt536022 phases=3 bus1=126435166.1.2.3 bus2=1361952B.1.2.3 linecode=CAB102_3_3_3 length=0.036993000000000005 units=km 
New line.mt536029 phases=3 bus1=1361959B.1.2.3 bus2=1361952B.1.2.3 linecode=CAB102_3_3_3 length=0.037033 units=km 
New line.mt536036 phases=3 bus1=126435152.1.2.3 bus2=1361959B.1.2.3 linecode=CAB102_3_3_3 length=0.038991 units=km 
New line.mt536043 phases=3 bus1=1361973B.1.2.3 bus2=126435152.1.2.3 linecode=CAB102_3_3_3 length=0.008481 units=km 
New line.mt536050 phases=3 bus1=1361973B.1.2.3 bus2=1361980B.1.2.3 linecode=CAB102_3_3_3 length=0.03005 units=km 
New line.mt536057 phases=3 bus1=1361980B.1.2.3 bus2=126435138.1.2.3 linecode=CAB102_3_3_3 length=0.032045000000000004 units=km 
New line.mt536162 phases=3 bus1=1362176B.1.2.3 bus2=159845417.1.2.3 linecode=CAB102_3_3_3 length=0.033042 units=km 
New line.mt536169 phases=3 bus1=1362183B.1.2.3 bus2=1362176B.1.2.3 linecode=CAB102_3_3_3 length=0.032045000000000004 units=km 
New line.mt536176 phases=3 bus1=1362190B.1.2.3 bus2=1362183B.1.2.3 linecode=CAB102_3_3_3 length=0.03 units=km 
New line.mt536183 phases=3 bus1=159845414.1.2.3 bus2=1361651B.1.2.3 linecode=CAB102_3_3_3 length=0.031047 units=km 
New line.mt536190 phases=3 bus1=159845414.1.2.3 bus2=1362190B.1.2.3 linecode=CAB102_3_3_3 length=0.03404 units=km 
New line.mt536197 phases=3 bus1=1362211B.1.2.3 bus2=159845414.1.2.3 linecode=CAB102_3_3_3 length=0.03005 units=km 
New line.mt536204 phases=3 bus1=1362260B.1.2.3 bus2=126435040.1.2.3 linecode=CAB102_3_3_3 length=0.033042 units=km 
New line.mt536211 phases=3 bus1=1362267B.1.2.3 bus2=1362260B.1.2.3 linecode=CAB102_3_3_3 length=0.032045000000000004 units=km 
New line.mt536218 phases=3 bus1=1362274B.1.2.3 bus2=1362267B.1.2.3 linecode=CAB102_3_3_3 length=0.032045000000000004 units=km 
New line.mt536225 phases=3 bus1=126435019.1.2.3 bus2=1361854B.1.2.3 linecode=CAB102_3_3_3 length=0.029053000000000002 units=km 
New line.mt536232 phases=3 bus1=126435019.1.2.3 bus2=1362274B.1.2.3 linecode=CAB102_3_3_3 length=0.032045000000000004 units=km 
New line.mt536239 phases=3 bus1=126435019.1.2.3 bus2=1362295B.1.2.3 linecode=CAB102_3_3_3 length=0.027004 units=km 
New line.mt536302 phases=3 bus1=1362463B.1.2.3 bus2=126435159.1.2.3 linecode=CAB102_3_3_3 length=0.037033 units=km 
New line.mt536309 phases=3 bus1=1362470B.1.2.3 bus2=1362463B.1.2.3 linecode=CAB102_3_3_3 length=0.038030999999999995 units=km 
New line.mt536316 phases=3 bus1=126435138.1.2.3 bus2=1362470B.1.2.3 linecode=CAB102_3_3_3 length=0.036201 units=km 
New line.mt536323 phases=3 bus1=126435138.1.2.3 bus2=1362491B.1.2.3 linecode=CAB102_3_3_3 length=0.029001000000000002 units=km 
New line.mt536330 phases=3 bus1=1362491B.1.2.3 bus2=126435124.1.2.3 linecode=CAB102_3_3_3 length=0.031047 units=km 
New line.mt536337 phases=3 bus1=1362498B.1.2.3 bus2=126434018.1.2.3 linecode=CAB102_3_3_3 length=0.029053000000000002 units=km 
New line.mt536344 phases=3 bus1=126434018.1.2.3 bus2=174216362.1.2.3 linecode=CAB102_3_3_3 length=0.033042 units=km 
New line.mt536351 phases=3 bus1=181076225.1.2.3 bus2=181076226.1.2.3 linecode=CABA06_3_3_3 length=0.036993000000000005 units=km 
New line.mt536358 phases=3 bus1=1362540B.1.2.3 bus2=179669241.1.2.3 linecode=CAB102_3_3_3 length=0.033996000000000005 units=km 
New line.mt536365 phases=3 bus1=1362547B.1.2.3 bus2=1362540B.1.2.3 linecode=CAB102_3_3_3 length=0.038030999999999995 units=km 
New line.mt536372 phases=3 bus1=179669237.1.2.3 bus2=1362547B.1.2.3 linecode=CAB102_3_3_3 length=0.038189 units=km 
New line.mt536379 phases=3 bus1=1362603B.1.2.3 bus2=174216361.1.2.3 linecode=CABA06_3_3_3 length=0.037033 units=km 
New line.mt536386 phases=3 bus1=1362610B.1.2.3 bus2=1362603B.1.2.3 linecode=CABA06_3_3_3 length=0.037033 units=km 
New line.mt536393 phases=3 bus1=174216360.1.2.3 bus2=1362610B.1.2.3 linecode=CABA06_3_3_3 length=0.036105 units=km 
New line.mt536400 phases=3 bus1=1362624B.1.2.3 bus2=179669238.1.2.3 linecode=CAB107_3_3_3 length=0.032045000000000004 units=km 
New line.mt536407 phases=3 bus1=179669238.1.2.3 bus2=167628869.1.2.3 linecode=CABA06_3_3_3 length=0.036035 units=km 
New line.mt536414 phases=3 bus1=179669238.1.2.3 bus2=1362638B.1.2.3 linecode=CAB107_3_3_3 length=0.033996000000000005 units=km 
New line.mt536421 phases=3 bus1=1362638B.1.2.3 bus2=1366509B.1.2.3 linecode=CAB107_3_3_3 length=0.03404 units=km 
New line.mt536428 phases=3 bus1=1362708B.1.2.3 bus2=159845415.1.2.3 linecode=CAB102_3_3_3 length=0.032997 units=km 
New line.mt536435 phases=3 bus1=1362715B.1.2.3 bus2=1362708B.1.2.3 linecode=CAB102_3_3_3 length=0.032045000000000004 units=km 
New line.mt536442 phases=3 bus1=1362722B.1.2.3 bus2=1362715B.1.2.3 linecode=CAB102_3_3_3 length=0.033042 units=km 
New line.mt536449 phases=3 bus1=159845412.1.2.3 bus2=1362211B.1.2.3 linecode=CAB102_3_3_3 length=0.032045000000000004 units=km 
New line.mt536456 phases=3 bus1=159845412.1.2.3 bus2=1362722B.1.2.3 linecode=CAB102_3_3_3 length=0.032045000000000004 units=km 
New line.mt536463 phases=3 bus1=1362743B.1.2.3 bus2=159845412.1.2.3 linecode=CAB102_3_3_3 length=0.031047 units=km 
New line.mt536470 phases=3 bus1=126435180.1.2.3 bus2=1362757B.1.2.3 linecode=CAB103_3_3_3 length=0.03005 units=km 
New line.mt536477 phases=3 bus1=1362757B.1.2.3 bus2=1362785B.1.2.3 linecode=CAB103_3_3_3 length=0.007068 units=km 
New line.mt536484 phases=3 bus1=1362785B.1.2.3 bus2=1362806B.1.2.3 linecode=CAB103_3_3_3 length=0.03404 units=km 
New line.mt536491 phases=3 bus1=1362806B.1.2.3 bus2=126435194.1.2.3 linecode=CAB103_3_3_3 length=0.03404 units=km 
New line.mt536526 phases=3 bus1=1363002B.1.2.3 bus2=126435026.1.2.3 linecode=CAB102_3_3_3 length=0.033042 units=km 
New line.mt536533 phases=3 bus1=1363009B.1.2.3 bus2=1363002B.1.2.3 linecode=CAB102_3_3_3 length=0.032045000000000004 units=km 
New line.mt536540 phases=3 bus1=1363016B.1.2.3 bus2=1363009B.1.2.3 linecode=CAB102_3_3_3 length=0.033042 units=km 
New line.mt536547 phases=3 bus1=126435005.1.2.3 bus2=1362295B.1.2.3 linecode=CAB102_3_3_3 length=0.035038 units=km 
New line.mt536554 phases=3 bus1=126435005.1.2.3 bus2=1363016B.1.2.3 linecode=CAB102_3_3_3 length=0.033042 units=km 
New line.mt536561 phases=3 bus1=1363037B.1.2.3 bus2=126435005.1.2.3 linecode=CAB102_3_3_3 length=0.03005 units=km 
New line.mt536617 phases=3 bus1=1363149B.1.2.3 bus2=126435152.1.2.3 linecode=CAB102_3_3_3 length=0.021012 units=km 
New line.mt536624 phases=3 bus1=126435173.1.2.3 bus2=126435180.1.2.3 linecode=CAB102_3_3_3 length=0.03 units=km 
New line.mt536631 phases=3 bus1=126435173.1.2.3 bus2=1363149B.1.2.3 linecode=CAB102_3_3_3 length=0.023009 units=km 
New line.mt536638 phases=3 bus1=126435173.1.2.3 bus2=1363163B.1.2.3 linecode=CAB102_3_3_3 length=0.0064 units=km 
New line.mt536645 phases=3 bus1=1363163B.1.2.3 bus2=1363170B.1.2.3 linecode=CAB102_3_3_3 length=0.035038 units=km 
New line.mt536652 phases=3 bus1=1363170B.1.2.3 bus2=1363177B.1.2.3 linecode=CAB102_3_3_3 length=0.03404 units=km 
New line.mt536659 phases=3 bus1=1363177B.1.2.3 bus2=126435187.1.2.3 linecode=CAB102_3_3_3 length=0.035038 units=km 
New line.mt536666 phases=3 bus1=1363240B.1.2.3 bus2=126434809.1.2.3 linecode=CAB102_3_3_3 length=0.033042 units=km 
New line.mt536673 phases=3 bus1=1363247B.1.2.3 bus2=1363240B.1.2.3 linecode=CAB102_3_3_3 length=0.033042 units=km 
New line.mt536680 phases=3 bus1=1363310B.1.2.3 bus2=126435145.1.2.3 linecode=CAB102_3_3_3 length=0.037033 units=km 
New line.mt536687 phases=3 bus1=1363317B.1.2.3 bus2=1363310B.1.2.3 linecode=CAB102_3_3_3 length=0.036035 units=km 
New line.mt536694 phases=3 bus1=126435124.1.2.3 bus2=1363317B.1.2.3 linecode=CAB102_3_3_3 length=0.038030999999999995 units=km 
New line.mt536701 phases=3 bus1=126435124.1.2.3 bus2=1363338B.1.2.3 linecode=CAB102_3_3_3 length=0.031128 units=km 
New line.mt536743 phases=3 bus1=1363478B.1.2.3 bus2=159845413.1.2.3 linecode=CAB102_3_3_3 length=0.032045000000000004 units=km 
New line.mt536750 phases=3 bus1=1363485B.1.2.3 bus2=1363478B.1.2.3 linecode=CAB102_3_3_3 length=0.033042 units=km 
New line.mt536757 phases=3 bus1=1363492B.1.2.3 bus2=1363485B.1.2.3 linecode=CAB102_3_3_3 length=0.032045000000000004 units=km 
New line.mt536764 phases=3 bus1=159845411.1.2.3 bus2=1362743B.1.2.3 linecode=CAB102_3_3_3 length=0.031047 units=km 
New line.mt536771 phases=3 bus1=159845411.1.2.3 bus2=1363492B.1.2.3 linecode=CAB102_3_3_3 length=0.032045000000000004 units=km 
New line.mt536778 phases=3 bus1=159845410.1.2.3 bus2=159845411.1.2.3 linecode=CAB102_3_3_3 length=0.041026 units=km 
New line.mt536827 phases=3 bus1=1363667B.1.2.3 bus2=126435012.1.2.3 linecode=CAB102_3_3_3 length=0.033042 units=km 
New line.mt536834 phases=3 bus1=1363674B.1.2.3 bus2=1363667B.1.2.3 linecode=CAB102_3_3_3 length=0.032045000000000004 units=km 
New line.mt536841 phases=3 bus1=1363681B.1.2.3 bus2=1363674B.1.2.3 linecode=CAB102_3_3_3 length=0.033042 units=km 
New line.mt536848 phases=3 bus1=126434998.1.2.3 bus2=1363037B.1.2.3 linecode=CAB102_3_3_3 length=0.031047 units=km 
New line.mt536855 phases=3 bus1=126434998.1.2.3 bus2=1363681B.1.2.3 linecode=CAB102_3_3_3 length=0.032045000000000004 units=km 
New line.mt536862 phases=3 bus1=126434998.1.2.3 bus2=126434991.1.2.3 linecode=CAB102_3_3_3 length=0.035038 units=km 
New line.mt536925 phases=3 bus1=174367954.1.2.3 bus2=179443663.1.2.3 linecode=CABA08_3_3_3 length=0.023074 units=km 
New line.mt536932 phases=3 bus1=179443663.1.2.3 bus2=179443664.1.2.3 linecode=CABA08_3_3_3 length=0.033042 units=km 
New line.mt536946 phases=3 bus1=1364192B.1.2.3 bus2=181155854.1.2.3 linecode=CAB107_3_3_3 length=0.027059 units=km 
New line.mt536953 phases=3 bus1=1364199B.1.2.3 bus2=1364192B.1.2.3 linecode=CAB107_3_3_3 length=0.027004 units=km 
New line.mt536960 phases=3 bus1=181155855.1.2.3 bus2=1364227B.1.2.3 linecode=CAB103_3_3_3 length=0.007068 units=km 
New line.mt536967 phases=3 bus1=181155855.1.2.3 bus2=1364199B.1.2.3 linecode=CAB107_3_3_3 length=0.028056 units=km 
New line.mt536974 phases=3 bus1=181155854.1.2.3 bus2=181155855.1.2.3 linecode=CAB107_3_3_3 length=0.0005 units=km 
New line.mt536981 phases=3 bus1=1364220B.1.2.3 bus2=181155855.1.2.3 linecode=CAB107_3_3_3 length=0.030999 units=km 
New line.mt536988 phases=3 bus1=1364227B.1.2.3 bus2=126434774.1.2.3 linecode=CAB103_3_3_3 length=0.037101 units=km 
New line.mt536995 phases=3 bus1=167122097.1.2.3 bus2=167122098.1.2.3 linecode=CAB102_3_3_3 length=0.037622 units=km 
New line.mt537002 phases=3 bus1=167122098.1.2.3 bus2=1364248B.1.2.3 linecode=CAB102_3_3_3 length=0.040831000000000006 units=km 
New line.mt537009 phases=3 bus1=1364248B.1.2.3 bus2=1364255B.1.2.3 linecode=CAB102_3_3_3 length=0.039903 units=km 
New line.mt537016 phases=3 bus1=1364255B.1.2.3 bus2=1367825B.1.2.3 linecode=CAB102_3_3_3 length=0.039903 units=km 
New line.mt537023 phases=3 bus1=1364304B.1.2.3 bus2=126435131.1.2.3 linecode=CAB102_3_3_3 length=0.037033 units=km 
New line.mt537030 phases=3 bus1=1364311B.1.2.3 bus2=1364304B.1.2.3 linecode=CAB102_3_3_3 length=0.037033 units=km 
New line.mt537037 phases=3 bus1=126435117.1.2.3 bus2=1363338B.1.2.3 linecode=CAB102_3_3_3 length=0.030999 units=km 
New line.mt537044 phases=3 bus1=126435117.1.2.3 bus2=1364311B.1.2.3 linecode=CAB102_3_3_3 length=0.037033 units=km 
New line.mt537051 phases=3 bus1=126435110.1.2.3 bus2=126435117.1.2.3 linecode=CAB102_3_3_3 length=0.03404 units=km 
New line.mt537058 phases=3 bus1=126434795.1.2.3 bus2=126434802.1.2.3 linecode=CAB102_3_3_3 length=0.035109 units=km 
New line.mt537065 phases=3 bus1=1364339B.1.2.3 bus2=1364220B.1.2.3 linecode=CAB107_3_3_3 length=0.032122 units=km 
New line.mt537072 phases=3 bus1=1364346B.1.2.3 bus2=1364339B.1.2.3 linecode=CAB107_3_3_3 length=0.033118 units=km 
New line.mt537079 phases=3 bus1=181155856.1.2.3 bus2=126434753.1.2.3 linecode=CAB103_3_3_3 length=0.031047 units=km 
New line.mt537086 phases=3 bus1=181155856.1.2.3 bus2=1364346B.1.2.3 linecode=CAB107_3_3_3 length=0.028002 units=km 
New line.mt537093 phases=3 bus1=181155856.1.2.3 bus2=1364367B.1.2.3 linecode=CAB103_3_3_3 length=0.0041210000000000005 units=km 
New line.mt537100 phases=3 bus1=1364360B.1.2.3 bus2=181155856.1.2.3 linecode=CAB107_3_3_3 length=0.003998 units=km 
New line.mt537107 phases=3 bus1=181155857.1.2.3 bus2=1364360B.1.2.3 linecode=CAB107_3_3_3 length=0.031128 units=km 
New line.mt537114 phases=3 bus1=1364395B.1.2.3 bus2=181155857.1.2.3 linecode=CAB107_3_3_3 length=0.027004 units=km 
New line.mt537121 phases=3 bus1=1364402B.1.2.3 bus2=1364395B.1.2.3 linecode=CAB107_3_3_3 length=0.005097000000000001 units=km 
New line.mt537128 phases=3 bus1=1364409B.1.2.3 bus2=1364402B.1.2.3 linecode=CAB107_3_3_3 length=0.032997 units=km 
New line.mt537135 phases=3 bus1=1364430B.1.2.3 bus2=1366131B.1.2.3 linecode=CAB107_3_3_3 length=0.033042 units=km 
New line.mt537142 phases=3 bus1=1364437B.1.2.3 bus2=1364430B.1.2.3 linecode=CAB107_3_3_3 length=0.032045000000000004 units=km 
New line.mt537149 phases=3 bus1=181155858.1.2.3 bus2=1364437B.1.2.3 linecode=CAB107_3_3_3 length=0.033042 units=km 
New line.mt537156 phases=3 bus1=126433927.1.2.3 bus2=181155858.1.2.3 linecode=CAB107_3_3_3 length=0.033042 units=km 
New line.mt537163 phases=3 bus1=1364465B.1.2.3 bus2=126433920.1.2.3 linecode=CAB107_3_3_3 length=0.033042 units=km 
New line.mt537247 phases=3 bus1=1364682B.1.2.3 bus2=126435054.1.2.3 linecode=CAB107_3_3_3 length=0.027059 units=km 
New line.mt537254 phases=3 bus1=126435054.1.2.3 bus2=1364675B.1.2.3 linecode=CAB102_3_3_3 length=0.03005 units=km 
New line.mt537261 phases=3 bus1=126435054.1.2.3 bus2=1364696B.1.2.3 linecode=CAB102_3_3_3 length=0.003998 units=km 
New line.mt537268 phases=3 bus1=126435054.1.2.3 bus2=1364717B.1.2.3 linecode=CAB102_3_3_3 length=0.003998 units=km 
New line.mt537275 phases=3 bus1=126435061.1.2.3 bus2=1364696B.1.2.3 linecode=CAB102_3_3_3 length=0.024007999999999998 units=km 
New line.mt537282 phases=3 bus1=126435061.1.2.3 bus2=1364710B.1.2.3 linecode=CAB102_3_3_3 length=0.022011 units=km 
New line.mt537289 phases=3 bus1=1364710B.1.2.3 bus2=1364724B.1.2.3 linecode=CAB102_3_3_3 length=0.033042 units=km 
New line.mt537296 phases=3 bus1=1364717B.1.2.3 bus2=1364745B.1.2.3 linecode=CAB102_3_3_3 length=0.038030999999999995 units=km 
New line.mt537303 phases=3 bus1=1364745B.1.2.3 bus2=1365935B.1.2.3 linecode=CAB102_3_3_3 length=0.035095 units=km 
New line.mt537639 phases=3 bus1=179443664.1.2.3 bus2=1365410B.1.2.3 linecode=CAB107_3_3_3 length=0.018018 units=km 
New line.mt537646 phases=3 bus1=1365410B.1.2.3 bus2=3150396.1.2.3 linecode=CAB107_3_3_3 length=0.014028 units=km 
New line.mt537653 phases=3 bus1=1365452B.1.2.3 bus2=167122103.1.2.3 linecode=CAB102_3_3_3 length=0.035757 units=km 
New line.mt537660 phases=3 bus1=1365459B.1.2.3 bus2=1365452B.1.2.3 linecode=CAB102_3_3_3 length=0.035321 units=km 
New line.mt537667 phases=3 bus1=1365466B.1.2.3 bus2=1365459B.1.2.3 linecode=CAB102_3_3_3 length=0.035757 units=km 
New line.mt537674 phases=3 bus1=1365473B.1.2.3 bus2=1365466B.1.2.3 linecode=CAB102_3_3_3 length=0.035757 units=km 
New line.mt537681 phases=3 bus1=1365480B.1.2.3 bus2=1365473B.1.2.3 linecode=CAB102_3_3_3 length=0.037101 units=km 
New line.mt537688 phases=3 bus1=1365487B.1.2.3 bus2=1365480B.1.2.3 linecode=CAB102_3_3_3 length=0.026005 units=km 
New line.mt537912 phases=3 bus1=1365935B.1.2.3 bus2=126435068.1.2.3 linecode=CAB102_3_3_3 length=0.035095 units=km 
New line.mt537919 phases=3 bus1=1366005B.1.2.3 bus2=1366012B.1.2.3 linecode=CAB102_3_3_3 length=0.03404 units=km 
New line.mt537926 phases=3 bus1=1366012B.1.2.3 bus2=126433437.1.2.3 linecode=CAB102_3_3_3 length=0.034506 units=km 
New line.mt537933 phases=3 bus1=126433409.1.2.3 bus2=126433430.1.2.3 linecode=CAB103_3_3_3 length=0.036857999999999995 units=km 
New line.mt537940 phases=3 bus1=126433409.1.2.3 bus2=1366033B.1.2.3 linecode=CAB103_3_3_3 length=0.037087 units=km 
New line.mt537947 phases=3 bus1=1366033B.1.2.3 bus2=1366040B.1.2.3 linecode=CAB103_3_3_3 length=0.037087 units=km 
New line.mt537954 phases=3 bus1=1366040B.1.2.3 bus2=1366047B.1.2.3 linecode=CAB103_3_3_3 length=0.031998 units=km 
New line.mt537961 phases=3 bus1=1366082B.1.2.3 bus2=180590387.1.2.3 linecode=CAB102_3_3_3 length=0.038058 units=km 
New line.mt537968 phases=3 bus1=1366089B.1.2.3 bus2=1366082B.1.2.3 linecode=CAB102_3_3_3 length=0.039029 units=km 
New line.mt537975 phases=3 bus1=1366096B.1.2.3 bus2=1366089B.1.2.3 linecode=CAB102_3_3_3 length=0.037101 units=km 
New line.mt537982 phases=3 bus1=180590386.1.2.3 bus2=1366096B.1.2.3 linecode=CAB102_3_3_3 length=0.038030999999999995 units=km 
New line.mt537989 phases=3 bus1=180590386.1.2.3 bus2=180590388.1.2.3 linecode=CAB103_3_3_3 length=0.031998 units=km 
New line.mt537996 phases=3 bus1=180590385.1.2.3 bus2=180590386.1.2.3 linecode=CAB103_3_3_3 length=0.035109 units=km 
New line.mt538010 phases=3 bus1=1366131B.1.2.3 bus2=1364409B.1.2.3 linecode=CAB107_3_3_3 length=0.03404 units=km 
New line.mt538017 phases=3 bus1=1366180B.1.2.3 bus2=127616983.1.2.3 linecode=CAB102_3_3_3 length=0.034186 units=km 
New line.mt538024 phases=3 bus1=1366187B.1.2.3 bus2=1366180B.1.2.3 linecode=CAB102_3_3_3 length=0.034694 units=km 
New line.mt538031 phases=3 bus1=1366194B.1.2.3 bus2=1366187B.1.2.3 linecode=CAB102_3_3_3 length=0.033042 units=km 
New line.mt538038 phases=3 bus1=1366201B.1.2.3 bus2=127616976.1.2.3 linecode=CAB102_3_3_3 length=0.032045000000000004 units=km 
...
