ULAU13/ssdBT_ULAU13.dss
New line.bt1537890 phases=4 bus1=1808720.1.2.3.4 bus2=1808727.1.2.3.4 length=0.0005 units=km linecode=BT311_BT311_7_3_1_4
New line.bt1538555 phases=4 bus1=148759270.1.2.3.4 bus2=1809476.1.2.3.4 length=0.03087 units=km linecode=BT107_BT107_7_3_1_4
New line.bt1538569 phases=4 bus1=148759277.1.2.3.4 bus2=1809483.1.2.3.4 length=0.033523000000000004 units=km linecode=BT107_BT107_7_3_1_4
New line.bt1538583 phases=4 bus1=1809497.1.2.3.4 bus2=157914875.1.2.3.4 length=0.019225000000000003 units=km linecode=BT803_BT803_4_3_4_4
New line.bt1538590 phases=4 bus1=148759291.1.2.3.4 bus2=1809490.1.2.3.4 length=0.030396999999999997 units=km linecode=BT107_BT107_7_3_1_4
New line.bt1538597 phases=4 bus1=1809504.1.2.3.4 bus2=1809497.1.2.3.4 length=0.037101 units=km linecode=BT803_BT803_4_3_4_4
New line.bt1538604 phases=4 bus1=1809511.1.2.3.4 bus2=1809504.1.2.3.4 length=0.029138999999999998 units=km linecode=BT803_BT803_4_3_4_4
New line.bt1538611 phases=4 bus1=1809469.1.2.3.4 bus2=1809511.1.2.3.4 length=0.0005 units=km linecode=BT307_BT307_7_3_1_4
New line.bt1538618 phases=4 bus1=1809511.1.2.3.4 bus2=157911227.1.2.3.4 length=0.03005 units=km linecode=BT803_BT803_4_3_4_4
New line.bt1538625 phases=4 bus1=1809518.1.2.3.4 bus2=1809553.1.2.3.4 length=0.04175 units=km linecode=BT810_BT810_4_3_4_4
New line.bt1538632 phases=4 bus1=1809525.1.2.3.4 bus2=157911144.1.2.3.4 length=0.034113 units=km linecode=BT803_BT803_4_3_4_4
New line.bt1538639 phases=4 bus1=1809532.1.2.3.4 bus2=157910912.1.2.3.4 length=0.034113 units=km linecode=BT810_BT810_4_3_4_4
New line.bt1538646 phases=4 bus1=1809539.1.2.3.4 bus2=157910894.1.2.3.4 length=0.028145 units=km linecode=BT810_BT810_4_3_4_4
New line.bt1538653 phases=4 bus1=1809553.1.2.3.4 bus2=1809560.1.2.3.4 length=0.044529000000000006 units=km linecode=BT810_BT810_4_3_4_4
New line.bt1538681 phases=4 bus1=1809609.1.2.3.4 bus2=1809616.1.2.3.4 length=0.043634 units=km linecode=BT810_BT810_4_3_4_4
New line.bt1538688 phases=4 bus1=4528850.1.2.3.4 bus2=1809609.1.2.3.4 length=0.041087000000000005 units=km linecode=BT803_BT803_4_3_4_4
New line.bt1538702 phases=3 bus1=1809616.2.3.4 bus2=1809637.2.3.4 length=0.029395 units=km linecode=BT503_BT503_5_2_1_3
New line.bt1538709 phases=4 bus1=1809623.1.2.3.4 bus2=178238893.1.2.3.4 length=0.036381000000000004 units=km linecode=BT803_BT803_4_3_4_4
New line.bt1538716 phases=4 bus1=1809630.1.2.3.4 bus2=178238743.1.2.3.4 length=0.04014 units=km linecode=BT803_BT803_4_3_4_4
New line.bt1539003 phases=4 bus1=148759468.1.2.3.4 bus2=1809952.1.2.3.4 length=0.039386000000000004 units=km linecode=BT107_BT107_7_3_1_4
New line.bt1539010 phases=4 bus1=1809966.1.2.3.4 bus2=1810001.1.2.3.4 length=0.044078000000000006 units=km linecode=BT810_BT810_4_3_4_4
New line.bt1539017 phases=4 bus1=1809973.1.2.3.4 bus2=148759367.1.2.3.4 length=0.04492 units=km linecode=BT803_BT803_4_3_4_4
New line.bt1539024 phases=4 bus1=148759409.1.2.3.4 bus2=1809959.1.2.3.4 length=0.036777000000000004 units=km linecode=BT803_BT803_4_3_4_4
New line.bt1539031 phases=4 bus1=1809980.1.2.3.4 bus2=1809966.1.2.3.4 length=0.045152 units=km linecode=BT810_BT810_4_3_4_4
New line.bt1539038 phases=4 bus1=178239299.1.2.3.4 bus2=1809980.1.2.3.4 length=0.035038 units=km linecode=BT803_BT803_4_3_4_4
New line.bt1539045 phases=4 bus1=1809987.1.2.3.4 bus2=6137436.1.2.3.4 length=0.007068 units=km linecode=BT107_BT107_7_3_1_4
New line.bt1539052 phases=4 bus1=1809994.1.2.3.4 bus2=178238533.1.2.3.4 length=0.03254 units=km linecode=BT803_BT803_4_3_4_4
New line.bt1539059 phases=4 bus1=178239228.1.2.3.4 bus2=1809987.1.2.3.4 length=0.042024 units=km linecode=BT803_BT803_4_3_4_4
New line.bt1539066 phases=4 bus1=1809945.1.2.3.4 bus2=1809994.1.2.3.4 length=0.0005 units=km linecode=BT509_BT509_7_3_1_4
New line.bt1539087 phases=4 bus1=1810036.1.2.3.4 bus2=1810050.1.2.3.4 length=0.066235 units=km linecode=BT803_BT803_4_3_4_4
New line.bt1539094 phases=4 bus1=1810043.1.2.3.4 bus2=1810036.1.2.3.4 length=0.063972 units=km linecode=BT803_BT803_4_3_4_4
New line.bt1539101 phases=4 bus1=3164522.1.2.3.4 bus2=1810043.1.2.3.4 length=0.0005 units=km linecode=BT509_BT509_7_3_1_4
New line.bt1539108 phases=4 bus1=1810043.1.2.3.4 bus2=1810057.1.2.3.4 length=0.06331300000000001 units=km linecode=BT803_BT803_4_3_4_4
New line.bt1539115 phases=4 bus1=1810057.1.2.3.4 bus2=3164529.1.2.3.4 length=0.06625 units=km linecode=BT803_BT803_4_3_4_4
New line.bt1539122 phases=4 bus1=1810064.1.2.3.4 bus2=157914502.1.2.3.4 length=0.020213000000000002 units=km linecode=BT803_BT803_4_3_4_4
New line.bt1539129 phases=4 bus1=1810078.1.2.3.4 bus2=1810064.1.2.3.4 length=0.00608 units=km linecode=BT803_BT803_4_3_4_4
New line.bt1539136 phases=4 bus1=1810078.1.2.3.4 bus2=1810071.1.2.3.4 length=0.008058 units=km linecode=BT107_BT106_7_3_1_4
New line.bt1539143 phases=4 bus1=1810078.1.2.3.4 bus2=158673715.1.2.3.4 length=0.023757 units=km linecode=BT803_BT803_4_3_4_4
New line.bt1539150 phases=4 bus1=1810085.1.2.3.4 bus2=1810078.1.2.3.4 length=0.047048 units=km linecode=BT107_BT106_7_3_1_4
New line.bt1539157 phases=4 bus1=1810092.1.2.3.4 bus2=1810085.1.2.3.4 length=0.058209000000000004 units=km linecode=BT107_BT106_7_3_1_4
New line.bt1539164 phases=4 bus1=1810022.1.2.3.4 bus2=1810092.1.2.3.4 length=0.0005 units=km linecode=BT307_BT307_7_3_1_4
New line.bt1539171 phases=4 bus1=1810092.1.2.3.4 bus2=1810106.1.2.3.4 length=0.068467 units=km linecode=BT107_BT106_7_3_1_4
New line.bt1539178 phases=4 bus1=1810106.1.2.3.4 bus2=1810113.1.2.3.4 length=0.060431 units=km linecode=BT107_BT106_7_3_1_4
New line.bt1539185 phases=4 bus1=1810113.1.2.3.4 bus2=1810120.1.2.3.4 length=0.054053 units=km linecode=BT107_BT106_7_3_1_4
New line.bt1539213 phases=4 bus1=1810183.1.2.3.4 bus2=158673689.1.2.3.4 length=0.029716 units=km linecode=BT810_BT810_4_3_4_4
New line.bt1539220 phases=4 bus1=1810190.1.2.3.4 bus2=157913477.1.2.3.4 length=0.026405 units=km linecode=BT810_BT810_4_3_4_4
New line.bt1539227 phases=4 bus1=178890555.1.2.3.4 bus2=1810197.1.2.3.4 length=0.028145 units=km linecode=BT803_BT803_4_3_4_4
New line.bt1539234 phases=4 bus1=178890767.1.2.3.4 bus2=1810204.1.2.3.4 length=0.028056 units=km linecode=BT803_BT803_4_3_4_4
New line.bt1539241 phases=4 bus1=178890818.1.2.3.4 bus2=1810211.1.2.3.4 length=0.028056 units=km linecode=BT803_BT803_4_3_4_4
New line.bt1539248 phases=4 bus1=1810225.1.2.3.4 bus2=157913350.1.2.3.4 length=0.033819 units=km linecode=BT810_BT810_4_3_4_4
New line.bt1539255 phases=4 bus1=1810225.1.2.3.4 bus2=1810218.1.2.3.4 length=0.013146000000000001 units=km linecode=BT803_BT803_4_3_4_4
New line.bt1539262 phases=4 bus1=1810225.1.2.3.4 bus2=1810239.1.2.3.4 length=0.014414999999999999 units=km linecode=BT810_BT810_4_3_4_4
New line.bt1539269 phases=4 bus1=1810169.1.2.3.4 bus2=1810232.1.2.3.4 length=0.0005 units=km linecode=BT508_BT508_7_3_1_4
New line.bt1539276 phases=4 bus1=1810232.1.2.3.4 bus2=1810246.1.2.3.4 length=0.037087 units=km linecode=BT803_BT803_4_3_4_4
New line.bt1539283 phases=4 bus1=1810232.1.2.3.4 bus2=1810274.1.2.3.4 length=0.038097 units=km linecode=BT803_BT803_4_3_4_4
New line.bt1539290 phases=4 bus1=1810239.1.2.3.4 bus2=158671150.1.2.3.4 length=0.030789 units=km linecode=BT809_BT809_4_3_4_4
New line.bt1539297 phases=4 bus1=1810246.1.2.3.4 bus2=1810253.1.2.3.4 length=0.07762300000000001 units=km linecode=BT803_BT803_4_3_4_4
New line.bt1539304 phases=4 bus1=178890996.1.2.3.4 bus2=1810267.1.2.3.4 length=0.042778 units=km linecode=BT803_BT803_4_3_4_4
New line.bt1539311 phases=4 bus1=1810274.1.2.3.4 bus2=1810225.1.2.3.4 length=0.028056 units=km linecode=BT803_BT803_4_3_4_4
New line.bt1539717 phases=4 bus1=1810743.1.2.3.4 bus2=158670148.1.2.3.4 length=0.030789 units=km linecode=BT803_BT803_4_3_4_4
New line.bt1539724 phases=4 bus1=1810750.1.2.3.4 bus2=1810743.1.2.3.4 length=0.057976 units=km linecode=BT810_BT810_4_3_4_4
New line.bt1539731 phases=4 bus1=178891215.1.2.3.4 bus2=1810757.1.2.3.4 length=0.028056 units=km linecode=BT108_BT108_7_3_1_4
New line.bt1539738 phases=4 bus1=178891278.1.2.3.4 bus2=1810764.1.2.3.4 length=0.028002 units=km linecode=BT108_BT108_7_3_1_4
New line.bt1539745 phases=4 bus1=178891320.1.2.3.4 bus2=1810771.1.2.3.4 length=0.028056 units=km linecode=BT108_BT108_7_3_1_4
New line.bt1539752 phases=4 bus1=1810785.1.2.3.4 bus2=1810750.1.2.3.4 length=0.056369 units=km linecode=BT810_BT810_4_3_4_4
New line.bt1539759 phases=4 bus1=1810785.1.2.3.4 bus2=1810778.1.2.3.4 length=0.009994999999999999 units=km linecode=BT108_BT108_7_3_1_4
New line.bt1539766 phases=4 bus1=1810785.1.2.3.4 bus2=1810799.1.2.3.4 length=0.008058 units=km linecode=BT108_BT108_7_3_1_4
New line.bt1539773 phases=4 bus1=1810792.1.2.3.4 bus2=1810785.1.2.3.4 length=0.04814 units=km linecode=BT108_BT108_7_3_1_4
New line.bt1539780 phases=4 bus1=1810729.1.2.3.4 bus2=1810792.1.2.3.4 length=0.0005 units=km linecode=BT509_BT509_7_3_1_4
New line.bt1539787 phases=4 bus1=178891390.1.2.3.4 bus2=1810806.1.2.3.4 length=0.026063 units=km linecode=BT108_BT108_7_3_1_4
New line.bt1539794 phases=4 bus1=1810799.1.2.3.4 bus2=1810834.1.2.3.4 length=0.031605 units=km linecode=BT803_BT803_4_3_4_4
New line.bt1539801 phases=4 bus1=178891450.1.2.3.4 bus2=1810813.1.2.3.4 length=0.029053000000000002 units=km linecode=BT108_BT108_7_3_1_4
New line.bt1539808 phases=4 bus1=178891560.1.2.3.4 bus2=1810820.1.2.3.4 length=0.030512 units=km linecode=BT108_BT108_7_3_1_4
New line.bt1539815 phases=4 bus1=178891641.1.2.3.4 bus2=1810827.1.2.3.4 length=0.019989 units=km linecode=BT108_BT108_7_3_1_4
New line.bt1539822 phases=4 bus1=1810834.1.2.3.4 bus2=1810841.1.2.3.4 length=0.035785 units=km linecode=BT803_BT803_4_3_4_4
New line.bt1539829 phases=4 bus1=1810841.1.2.3.4 bus2=1810848.1.2.3.4 length=0.035785 units=km linecode=BT803_BT803_4_3_4_4
New line.bt1539836 phases=4 bus1=1810848.1.2.3.4 bus2=1810855.1.2.3.4 length=0.035785 units=km linecode=BT803_BT803_4_3_4_4
New line.bt1539843 phases=4 bus1=1810855.1.2.3.4 bus2=1810862.1.2.3.4 length=0.036599 units=km linecode=BT803_BT803_4_3_4_4
New line.bt1539850 phases=4 bus1=1810862.1.2.3.4 bus2=1810869.1.2.3.4 length=0.032185000000000005 units=km linecode=BT803_BT803_4_3_4_4
New line.bt1541033 phases=4 bus1=1812367.1.2.3.4 bus2=1812374.1.2.3.4 length=0.0064 units=km linecode=BT107_BT107_7_3_1_4
New line.bt1541040 phases=4 bus1=1812213.1.2.3.4 bus2=1812206.1.2.3.4 length=0.028002 units=km linecode=BT803_BT803_4_3_4_4
New line.bt1541047 phases=4 bus1=1812220.1.2.3.4 bus2=1812213.1.2.3.4 length=0.026062000000000002 units=km linecode=BT803_BT803_4_3_4_4
New line.bt1541054 phases=4 bus1=1812227.1.2.3.4 bus2=1812220.1.2.3.4 length=0.026062000000000002 units=km linecode=BT803_BT803_4_3_4_4
New line.bt1541061 phases=4 bus1=1812234.1.2.3.4 bus2=1812227.1.2.3.4 length=0.026062000000000002 units=km linecode=BT803_BT803_4_3_4_4
New line.bt1541068 phases=4 bus1=1812241.1.2.3.4 bus2=1812234.1.2.3.4 length=0.03005 units=km linecode=BT803_BT803_4_3_4_4
New line.bt1541075 phases=4 bus1=1812199.1.2.3.4 bus2=1812241.1.2.3.4 length=0.0005 units=km linecode=BT513_BT513_7_3_1_4
New line.bt1541082 phases=4 bus1=1812241.1.2.3.4 bus2=1812248.1.2.3.4 length=0.032045000000000004 units=km linecode=BT803_BT803_4_3_4_4
New line.bt1541089 phases=4 bus1=1812248.1.2.3.4 bus2=1812255.1.2.3.4 length=0.03005 units=km linecode=BT803_BT803_4_3_4_4
New line.bt1541096 phases=4 bus1=1812255.1.2.3.4 bus2=1812262.1.2.3.4 length=0.031128 units=km linecode=BT803_BT803_4_3_4_4
New line.bt1541103 phases=4 bus1=1812262.1.2.3.4 bus2=1812269.1.2.3.4 length=0.032045000000000004 units=km linecode=BT803_BT803_4_3_4_4
New line.bt1541110 phases=4 bus1=1812269.1.2.3.4 bus2=1812276.1.2.3.4 length=0.03 units=km linecode=BT803_BT803_4_3_4_4
New line.bt1541117 phases=4 bus1=1812269.1.2.3.4 bus2=1812283.1.2.3.4 length=0.0064 units=km linecode=BT803_BT803_4_3_4_4
New line.bt1541124 phases=4 bus1=1812283.1.2.3.4 bus2=1812290.1.2.3.4 length=0.026062000000000002 units=km linecode=BT803_BT803_4_3_4_4
New line.bt1541138 phases=4 bus1=1812325.1.2.3.4 bus2=1812318.1.2.3.4 length=0.024172999999999997 units=km linecode=BT809_BT809_4_3_4_4
New line.bt1541145 phases=4 bus1=1812332.1.2.3.4 bus2=1812325.1.2.3.4 length=0.029053000000000002 units=km linecode=BT809_BT809_4_3_4_4
New line.bt1541152 phases=4 bus1=1812339.1.2.3.4 bus2=1812332.1.2.3.4 length=0.03005 units=km linecode=BT107_BT107_7_3_1_4
New line.bt1541159 phases=4 bus1=1812346.1.2.3.4 bus2=1812339.1.2.3.4 length=0.03005 units=km linecode=BT107_BT107_7_3_1_4
New line.bt1541166 phases=4 bus1=1812346.1.2.3.4 bus2=1812353.1.2.3.4 length=0.030133 units=km linecode=BT107_BT107_7_3_1_4
New line.bt1541173 phases=4 bus1=1812353.1.2.3.4 bus2=1812367.1.2.3.4 length=0.032231 units=km linecode=BT107_BT107_7_3_1_4
New line.bt1541180 phases=4 bus1=1812360.1.2.3.4 bus2=1812346.1.2.3.4 length=0.0064 units=km linecode=BT107_BT107_7_3_1_4
New line.bt1541187 phases=4 bus1=1812374.1.2.3.4 bus2=1812388.1.2.3.4 length=0.032231 units=km linecode=BT107_BT107_7_3_1_4
New line.bt1541194 phases=4 bus1=1812381.1.2.3.4 bus2=1812360.1.2.3.4 length=0.031128 units=km linecode=BT108_BT108_7_3_1_4
New line.bt1541201 phases=4 bus1=1812311.1.2.3.4 bus2=1812381.1.2.3.4 length=0.0005 units=km linecode=BT513_BT513_7_3_1_4
New line.bt1541208 phases=4 bus1=1812381.1.2.3.4 bus2=1812402.1.2.3.4 length=0.031047 units=km linecode=BT108_BT108_7_3_1_4
New line.bt1541215 phases=4 bus1=1812402.1.2.3.4 bus2=1812395.1.2.3.4 length=0.036105 units=km linecode=BT803_BT803_4_3_4_4
New line.bt1541222 phases=4 bus1=1812402.1.2.3.4 bus2=1812409.1.2.3.4 length=0.031128 units=km linecode=BT108_BT108_7_3_1_4
New line.bt1541229 phases=4 bus1=1812430.1.2.3.4 bus2=1812423.1.2.3.4 length=0.031047 units=km linecode=BT107_BT107_7_3_1_4
New line.bt1541236 phases=4 bus1=1812430.1.2.3.4 bus2=1812444.1.2.3.4 length=0.0064 units=km linecode=BT107_BT107_7_3_1_4
New line.bt1541243 phases=4 bus1=1812437.1.2.3.4 bus2=1812430.1.2.3.4 length=0.033042 units=km linecode=BT108_BT108_7_3_1_4
New line.bt1541250 phases=4 bus1=1812444.1.2.3.4 bus2=1812514.1.2.3.4 length=0.026062000000000002 units=km linecode=BT107_BT107_7_3_1_4
New line.bt1541257 phases=4 bus1=1812451.1.2.3.4 bus2=1812437.1.2.3.4 length=0.033042 units=km linecode=BT108_BT108_7_3_1_4
New line.bt1541264 phases=4 bus1=1812458.1.2.3.4 bus2=1812451.1.2.3.4 length=0.032997 units=km linecode=BT108_BT108_7_3_1_4
New line.bt1541271 phases=4 bus1=1812465.1.2.3.4 bus2=1812458.1.2.3.4 length=0.033042 units=km linecode=BT108_BT108_7_3_1_4
New line.bt1541278 phases=4 bus1=1812416.1.2.3.4 bus2=1812465.1.2.3.4 length=0.0005 units=km linecode=BT307_BT307_7_3_1_4
New line.bt1541285 phases=4 bus1=1812465.1.2.3.4 bus2=1812472.1.2.3.4 length=0.032045000000000004 units=km linecode=BT108_BT108_7_3_1_4
New line.bt1541292 phases=4 bus1=1812472.1.2.3.4 bus2=1812479.1.2.3.4 length=0.033042 units=km linecode=BT108_BT108_7_3_1_4
New line.bt1541299 phases=4 bus1=1812479.1.2.3.4 bus2=1812486.1.2.3.4 length=0.033042 units=km linecode=BT108_BT108_7_3_1_4
New line.bt1541306 phases=4 bus1=1812486.1.2.3.4 bus2=1812493.1.2.3.4 length=0.034995 units=km linecode=BT108_BT108_7_3_1_4
New line.bt1541313 phases=4 bus1=1812493.1.2.3.4 bus2=1812500.1.2.3.4 length=0.03005 units=km linecode=BT108_BT108_7_3_1_4
New line.bt1541320 phases=4 bus1=1812493.1.2.3.4 bus2=1812507.1.2.3.4 length=0.007068 units=km linecode=BT107_BT107_7_3_1_4
New line.bt1541327 phases=4 bus1=1812507.1.2.3.4 bus2=1812521.1.2.3.4 length=0.029053000000000002 units=km linecode=BT107_BT107_7_3_1_4
New line.bt1541411 phases=4 bus1=1812619.1.2.3.4 bus2=1812703.1.2.3.4 length=0.031998 units=km linecode=BT809_BT809_4_3_4_4
New line.bt1541418 phases=4 bus1=1812619.1.2.3.4 bus2=1812675.1.2.3.4 length=0.007068 units=km linecode=BT809_BT809_4_3_4_4
New line.bt1541425 phases=4 bus1=1812626.1.2.3.4 bus2=1812682.1.2.3.4 length=0.038030999999999995 units=km linecode=BT803_BT803_4_3_4_4
New line.bt1541432 phases=4 bus1=1812633.1.2.3.4 bus2=1812626.1.2.3.4 length=0.038030999999999995 units=km linecode=BT108_BT108_7_3_1_4
New line.bt1541439 phases=4 bus1=1812612.1.2.3.4 bus2=1812633.1.2.3.4 length=0.0005 units=km linecode=BT307_BT307_7_3_1_4
New line.bt1541446 phases=4 bus1=1812633.1.2.3.4 bus2=1812640.1.2.3.4 length=0.036993000000000005 units=km linecode=BT108_BT108_7_3_1_4
New line.bt1541453 phases=4 bus1=1812640.1.2.3.4 bus2=1812647.1.2.3.4 length=0.037033 units=km linecode=BT108_BT108_7_3_1_4
New line.bt1541460 phases=4 bus1=1812647.1.2.3.4 bus2=1812654.1.2.3.4 length=0.038991 units=km linecode=BT107_BT107_7_3_1_4
New line.bt1541467 phases=4 bus1=1812654.1.2.3.4 bus2=1812661.1.2.3.4 length=0.008481 units=km linecode=BT107_BT107_7_3_1_4
New line.bt1541474 phases=4 bus1=1812661.1.2.3.4 bus2=1812668.1.2.3.4 length=0.03005 units=km linecode=BT107_BT107_7_3_1_4
New line.bt1541481 phases=4 bus1=1812675.1.2.3.4 bus2=1812696.1.2.3.4 length=0.031047 units=km linecode=BT809_BT809_4_3_4_4
New line.bt1541488 phases=4 bus1=1812682.1.2.3.4 bus2=1812689.1.2.3.4 length=0.035994 units=km linecode=BT803_BT803_4_3_4_4
New line.bt1541495 phases=4 bus1=1812689.1.2.3.4 bus2=1812619.1.2.3.4 length=0.037033 units=km linecode=BT803_BT803_4_3_4_4
New line.bt1541649 phases=4 bus1=1812871.1.2.3.4 bus2=1812885.1.2.3.4 length=0.007068 units=km linecode=BT107_BT107_7_3_1_4
New line.bt1541656 phases=4 bus1=1812878.1.2.3.4 bus2=1812871.1.2.3.4 length=0.031128 units=km linecode=BT108_BT108_7_3_1_4
New line.bt1541663 phases=4 bus1=1812885.1.2.3.4 bus2=1812857.1.2.3.4 length=0.031047 units=km linecode=BT107_BT107_7_3_1_4
New line.bt1541670 phases=4 bus1=1812885.1.2.3.4 bus2=1812941.1.2.3.4 length=0.03005 units=km linecode=BT107_BT107_7_3_1_4
New line.bt1541677 phases=4 bus1=1812892.1.2.3.4 bus2=1812878.1.2.3.4 length=0.032045000000000004 units=km linecode=BT108_BT108_7_3_1_4
New line.bt1541684 phases=4 bus1=1812899.1.2.3.4 bus2=1812892.1.2.3.4 length=0.033042 units=km linecode=BT108_BT108_7_3_1_4
New line.bt1541691 phases=4 bus1=1812906.1.2.3.4 bus2=1812899.1.2.3.4 length=0.032045000000000004 units=km linecode=BT108_BT108_7_3_1_4
New line.bt1541698 phases=4 bus1=1812850.1.2.3.4 bus2=1812906.1.2.3.4 length=0.0005 units=km linecode=BT307_BT307_7_3_1_4
New line.bt1541705 phases=4 bus1=1812906.1.2.3.4 bus2=1812913.1.2.3.4 length=0.033042 units=km linecode=BT108_BT108_7_3_1_4
New line.bt1541712 phases=4 bus1=1812913.1.2.3.4 bus2=1812920.1.2.3.4 length=0.032045000000000004 units=km linecode=BT108_BT108_7_3_1_4
New line.bt1541719 phases=4 bus1=1812920.1.2.3.4 bus2=1812927.1.2.3.4 length=0.03 units=km linecode=BT108_BT108_7_3_1_4
New line.bt1541726 phases=4 bus1=1812927.1.2.3.4 bus2=1812934.1.2.3.4 length=0.03404 units=km linecode=BT107_BT107_7_3_1_4
New line.bt1541733 phases=4 bus1=1812934.1.2.3.4 bus2=1812864.1.2.3.4 length=0.031047 units=km linecode=BT107_BT107_7_3_1_4
New line.bt1541740 phases=4 bus1=1812934.1.2.3.4 bus2=1812948.1.2.3.4 length=0.03005 units=km linecode=BT107_BT107_7_3_1_4
New line.bt1541747 phases=4 bus1=1812976.1.2.3.4 bus2=1812997.1.2.3.4 length=0.005654 units=km linecode=BT107_BT107_7_3_1_4
New line.bt1541754 phases=4 bus1=1812983.1.2.3.4 bus2=1812976.1.2.3.4 length=0.032045000000000004 units=km linecode=BT108_BT108_7_3_1_4
New line.bt1541761 phases=4 bus1=1812990.1.2.3.4 bus2=1812983.1.2.3.4 length=0.03404 units=km linecode=BT108_BT108_7_3_1_4
...