ULAU13/ramlig_ULAU13.dss
New line.ram2443361 phases=3 bus1=1810176.2.3.4 bus2=4002443361.2.3.4 length=0.017 units=km linecode=CABBTG05_4_2_3
New line.ram2443368 phases=4 bus1=1810197.1.2.3.4 bus2=4002443368.1.2.3.4 length=0.017 units=km linecode=CABBTG07_4_3_4
New line.ram2443375 phases=4 bus1=1810197.1.2.3.4 bus2=4002443375.1.2.3.4 length=0.017 units=km linecode=CABBTG07_4_3_4
New line.ram2443382 phases=3 bus1=1810197.3.1.4 bus2=4002443382.3.1.4 length=0.017 units=km linecode=CABBTG05_4_2_3
New line.ram2443389 phases=4 bus1=1810197.1.2.3.4 bus2=4002443389.1.2.3.4 length=0.017 units=km linecode=CABBTG07_4_3_4
New line.ram2443396 phases=3 bus1=1810204.2.3.4 bus2=4002443396.2.3.4 length=0.017 units=km linecode=CABBTG05_4_2_3
New line.ram2443403 phases=4 bus1=1810211.1.2.3.4 bus2=4002443403.1.2.3.4 length=0.017 units=km linecode=CABBTG07_4_3_4
New line.ram2443410 phases=3 bus1=1810211.2.3.4 bus2=4002443410.2.3.4 length=0.017 units=km linecode=CABBTG05_4_2_3
New line.ram2443417 phases=3 bus1=1810218.1.2.4 bus2=4002443417.1.2.4 length=0.017 units=km linecode=CABBTG05_4_2_3
New line.ram2443424 phases=4 bus1=1810232.1.2.3.4 bus2=4002443424.1.2.3.4 length=0.017 units=km linecode=CABBTG07_4_3_4
New line.ram2443431 phases=4 bus1=1810239.1.2.3.4 bus2=4002443431.1.2.3.4 length=0.017 units=km linecode=CABBTG07_4_3_4
New line.ram2443438 phases=3 bus1=1810253.2.3.4 bus2=4002443438.2.3.4 length=0.017 units=km linecode=CABBTG05_4_2_3
New line.ram2443445 phases=3 bus1=1810253.3.1.4 bus2=4002443445.3.1.4 length=0.017 units=km linecode=CABBTG05_4_2_3
New line.ram2443452 phases=4 bus1=1810253.1.2.3.4 bus2=4002443452.1.2.3.4 length=0.017 units=km linecode=CABBTG07_4_3_4
New line.ram2443459 phases=3 bus1=1810260.1.2.4 bus2=4002443459.1.2.4 length=0.017 units=km linecode=CABBTG05_4_2_3
New line.ram2443466 phases=3 bus1=1810267.1.2.4 bus2=4002443466.1.2.4 length=0.017 units=km linecode=CABBTG05_4_2_3
New line.ram2443473 phases=3 bus1=1810267.1.2.4 bus2=4002443473.1.2.4 length=0.017 units=km linecode=CABBTG05_4_2_3
New line.ram2443480 phases=4 bus1=1810267.1.2.3.4 bus2=4002443480.1.2.3.4 length=0.017 units=km linecode=CABBTG06_4_3_4
New line.ram2443487 phases=4 bus1=1810267.1.2.3.4 bus2=4002443487.1.2.3.4 length=0.017 units=km linecode=CABBTG07_4_3_4
New line.ram2446987 phases=2 bus1=1812213.1.4 bus2=4002446987.1.4 length=0.017 units=km linecode=CABBTG01_4_1_2
New line.ram2446994 phases=3 bus1=1812220.3.1.4 bus2=4002446994.3.1.4 length=0.017 units=km linecode=CABBTG05_4_2_3
New line.ram2447001 phases=3 bus1=1812220.1.2.4 bus2=4002447001.1.2.4 length=0.017 units=km linecode=CABBTG05_4_2_3
New line.ram2447015 phases=3 bus1=1812241.2.3.4 bus2=4002447015.2.3.4 length=0.017 units=km linecode=CABBTG05_4_2_3
New line.ram2447022 phases=3 bus1=1812241.2.3.4 bus2=4002447022.2.3.4 length=0.017 units=km linecode=CABBTG05_4_2_3
New line.ram2447029 phases=3 bus1=1812241.2.3.4 bus2=4002447029.2.3.4 length=0.017 units=km linecode=CABBTG05_4_2_3
New line.ram2447036 phases=3 bus1=1812248.1.2.4 bus2=4002447036.1.2.4 length=0.017 units=km linecode=CABBTG05_4_2_3
New line.ram2447043 phases=3 bus1=1812248.3.1.4 bus2=4002447043.3.1.4 length=0.017 units=km linecode=CABBTG05_4_2_3
New line.ram2447050 phases=3 bus1=1812248.2.3.4 bus2=4002447050.2.3.4 length=0.017 units=km linecode=CABBTG05_4_2_3
New line.ram2447057 phases=4 bus1=1812255.1.2.3.4 bus2=4002447057.1.2.3.4 length=0.017 units=km linecode=CABBTG07_4_3_4
New line.ram2447064 phases=3 bus1=1812255.3.1.4 bus2=4002447064.3.1.4 length=0.017 units=km linecode=CABBTG05_4_2_3
New line.ram2447071 phases=3 bus1=1812255.2.3.4 bus2=4002447071.2.3.4 length=0.017 units=km linecode=CABBTG05_4_2_3
New line.ram2447085 phases=3 bus1=1812262.1.2.4 bus2=4002447085.1.2.4 length=0.017 units=km linecode=CABBTG05_4_2_3
New line.ram2447092 phases=3 bus1=1812262.3.1.4 bus2=4002447092.3.1.4 length=0.017 units=km linecode=CABBTG05_4_2_3
New line.ram2447099 phases=2 bus1=1812269.3.4 bus2=4002447099.3.4 length=0.017 units=km linecode=CABBTG01_4_1_2
New line.ram2447106 phases=3 bus1=1812276.3.1.4 bus2=4002447106.3.1.4 length=0.017 units=km linecode=CABBTG05_4_2_3
New line.ram2447113 phases=3 bus1=1812283.3.1.4 bus2=4002447113.3.1.4 length=0.017 units=km linecode=CABBTG05_4_2_3
New line.ram2447120 phases=3 bus1=1812290.1.2.4 bus2=4002447120.1.2.4 length=0.017 units=km linecode=CABBTG05_4_2_3
New line.ram2447127 phases=2 bus1=1812290.2.4 bus2=4002447127.2.4 length=0.017 units=km linecode=CABBTG01_4_1_2
New line.ram2447134 phases=3 bus1=1812290.1.2.4 bus2=4002447134.1.2.4 length=0.017 units=km linecode=CABBTG05_4_2_3
New line.ram2447141 phases=3 bus1=1812290.1.2.4 bus2=4002447141.1.2.4 length=0.017 units=km linecode=CABBTG05_4_2_3
New line.ram2447155 phases=2 bus1=1812318.1.4 bus2=4002447155.1.4 length=0.017 units=km linecode=CABBTG01_4_1_2
New line.ram2447162 phases=2 bus1=1812325.1.4 bus2=4002447162.1.4 length=0.017 units=km linecode=CABBTG01_4_1_2
...